Circuit: * D:\university\hesgari\project\simulation LTspice\Draft2.asc

WARNING: Less than two connections to node N001.  This node is used by V1.
.OP point found by inspection.

Date: Sat Feb 21 20:01:42 2026
Total elapsed time: 0.015 seconds.

tnom = 27
temp = 27
method = modified trap
totiter = 3500
traniter = 3500
tranpoints = 1751
accept = 1360
rejected = 391
matrix size = 6
fillins = 0
solver = Normal
Matrix Compiler1: 110 bytes object code size  0.0/0.0/[0.0]
Matrix Compiler2:      28 opcodes  0.0/[0.0]/0.0

