Circuit: * D:\university\hesgari\project\simulation LTspice\Final Signal Conditioning Circuit.asc

Direct Newton iteration failed to find .op point.  (Use ".option noopiter" to skip.)
Starting Gmin stepping
Gmin = 10
Gmin = 1.07374
Gmin = 0.115292
Gmin = 0.0123794
Gmin = 0.00132923
vernier = 0.5
vernier = 0.25
vernier = 0.125
vernier = 0.0625
Gmin = 0.00100083
vernier = 0.03125
vernier = 0.015625
vernier = 0.0078125
vernier = 0.00390625
vernier = 0.00195313
Gmin = 0.00100083
vernier = 0.000976563
vernier = 0.000488281
Gmin = 0
Gmin stepping failed

Starting source stepping with srcstepmethod=0
Source Step = 3.0303%
Source Step = 33.3333%
Source Step = 63.6364%
Source Step = 93.9394%
Source stepping succeeded in finding the operating point.




Date: Tue Feb 24 00:33:38 2026
Total elapsed time: 2.678 seconds.

tnom = 27
temp = 27
method = modified trap
totiter = 124216
traniter = 122218
tranpoints = 29547
accept = 21076
rejected = 8471
matrix size = 202
fillins = 344
solver = Normal
Thread vector: 10.5/6.8[4] 3.6/1.9[4] 4.7/2.6[4] 0.7/0.9[1]  2592/500
Matrix Compiler1: 29.00 KB object code size  4.6/2.3/[1.1]
Matrix Compiler2: 22.57 KB object code size  2.8/3.9/[1.3]

