Circuit: * D:\university\hesgari\project\simulation LTspice\Draft1.asc

Direct Newton iteration failed to find .op point.  (Use ".option noopiter" to skip.)
Starting Gmin stepping
Gmin = 10
Gmin = 1.07374
Gmin = 0.115292
Gmin = 0.0123794
Gmin = 0.00132923
vernier = 0.5
vernier = 0.25
vernier = 0.125
vernier = 0.0625
Gmin = 0.00100083
vernier = 0.03125
vernier = 0.015625
vernier = 0.0078125
vernier = 0.00390625
vernier = 0.00195313
Gmin = 0.00100083
vernier = 0.000976563
vernier = 0.000488281
Gmin = 0
Gmin stepping succeeded in finding the operating point.


Date: Sat Feb 21 16:24:21 2026
Total elapsed time: 0.464 seconds.

tnom = 27
temp = 27
method = modified trap
totiter = 18827
traniter = 17274
tranpoints = 4106
accept = 3336
rejected = 770
matrix size = 190
fillins = 257
solver = Normal
Thread vector: 14.4/5.7[4] 3.5/1.9[4] 5.4/1.5[4] 0.7/1.0[1]  2592/500
Matrix Compiler1: 23.10 KB object code size  3.8/2.0/[0.8]
Matrix Compiler2: 20.09 KB object code size  2.2/3.0/[1.2]

