Circuit: * D:\university\hesgari\project\simulation LTspice\LPF.asc


max_gain: MAX(mag(v(vout)))=(-0.000438896dB,0°) FROM 0.1 TO 10000
fcut-off: mag(v(vout))=max_gain/sqrt(2) AT 9.94819


Date: Fri Feb 20 18:07:12 2026
Total elapsed time: 0.047 seconds.

tnom = 27
temp = 27
method = trap
totiter = 0
traniter = 0
tranpoints = 0
accept = 0
rejected = 0
matrix size = 3
fillins = 0
solver = Normal

